Version 4
SHEET 1 880 680
WIRE 256 224 -64 224
WIRE 256 256 16 256
WIRE 416 272 336 272
WIRE 496 272 416 272
WIRE 256 288 96 288
WIRE 256 320 176 320
WIRE -64 352 -64 224
WIRE 16 352 16 256
WIRE 96 352 96 288
WIRE 176 352 176 320
WIRE 496 352 496 336
WIRE 496 352 416 352
WIRE 496 368 496 352
WIRE 256 416 240 416
WIRE 288 416 288 336
WIRE 288 416 256 416
WIRE 304 416 304 336
WIRE 336 416 304 416
WIRE 352 416 336 416
WIRE 240 448 240 416
WIRE 352 448 352 416
FLAG -144 352 VDD
FLAG 304 208 VDD
FLAG -144 432 0
FLAG -64 432 0
FLAG 16 432 0
FLAG 96 432 0
FLAG 176 432 0
FLAG 240 528 0
FLAG 352 528 0
FLAG 496 368 0
FLAG 96 288 C
FLAG 256 416 S1
FLAG 336 416 S2
FLAG 16 256 B
FLAG -64 224 A
FLAG 176 320 D
SYMBOL voltage 176 336 R0
WINDOW 3 24 96 Invisible 2
WINDOW 123 0 0 Left 0
WINDOW 39 0 0 Left 0
SYMATTR Value PULSE(0 1 0 5p 5p 32n 64n)
SYMATTR InstName V1
SYMBOL voltage 96 336 R0
WINDOW 3 24 96 Invisible 2
WINDOW 123 0 0 Left 0
WINDOW 39 0 0 Left 0
SYMATTR Value PULSE(0 1 0 5p 5p 16n 32n)
SYMATTR InstName V2
SYMBOL voltage 16 336 R0
WINDOW 3 24 96 Invisible 2
WINDOW 123 0 0 Left 0
WINDOW 39 0 0 Left 0
SYMATTR Value PULSE(0 1 0 5p 5p 8n 16n)
SYMATTR InstName V3
SYMBOL voltage -64 336 R0
WINDOW 3 24 96 Invisible 2
WINDOW 123 0 0 Left 0
WINDOW 39 0 0 Left 0
SYMATTR Value PULSE(0 1 0 5p 5p 4n 8n)
SYMATTR InstName V4
SYMBOL voltage 240 432 R0
WINDOW 3 24 96 Invisible 2
WINDOW 123 0 0 Left 0
WINDOW 39 0 0 Left 0
SYMATTR Value PULSE(0 1 9n 5p 5p 9n 18n)
SYMATTR InstName V5
SYMBOL voltage 352 432 R0
WINDOW 3 24 96 Invisible 2
WINDOW 123 0 0 Left 0
WINDOW 39 0 0 Left 0
SYMATTR Value PULSE(0 1 9n 5p 5p 18n 36n)
SYMATTR InstName V6
SYMBOL voltage -144 336 R0
WINDOW 123 0 0 Left 0
WINDOW 39 0 0 Left 0
SYMATTR InstName V7
SYMATTR Value 1
SYMBOL res 400 256 R0
SYMATTR InstName R1
SYMATTR Value 100k
SYMBOL cap 480 272 R0
SYMATTR InstName C1
SYMATTR Value 100f
SYMBOL mux4to1 304 272 R0
SYMATTR InstName X1
TEXT -144 144 Left 2 !.include 90nm_bulk.txt
TEXT -144 168 Left 2 !.tran 0 72n 0 1p
