Version 4
SHEET 1 880 744
WIRE -128 -80 -560 -80
WIRE 16 -64 -16 -64
WIRE -128 -48 -240 -48
WIRE 16 -16 16 -64
WIRE -128 48 -240 48
WIRE 128 48 128 0
WIRE 240 48 128 48
WIRE 16 64 16 16
WIRE 16 64 -16 64
WIRE -128 80 -352 80
WIRE 240 80 32 80
WIRE 352 112 352 64
WIRE 384 112 352 112
WIRE -560 128 -560 -80
WIRE -560 128 -576 128
WIRE -464 128 -464 112
WIRE -464 128 -560 128
WIRE -352 128 -352 80
WIRE 32 128 32 80
WIRE 64 128 64 112
WIRE 64 128 32 128
WIRE -464 144 -464 128
WIRE 64 144 64 128
WIRE 384 144 352 144
WIRE -352 176 -352 128
WIRE -128 176 -352 176
WIRE 176 176 176 128
WIRE 240 176 176 176
WIRE 16 192 -16 192
WIRE 352 192 352 144
WIRE -128 208 -240 208
WIRE 240 208 176 208
WIRE 16 240 16 192
WIRE 176 256 176 208
WIRE 176 256 128 256
WIRE -128 304 -240 304
WIRE 16 320 16 272
WIRE 16 320 -16 320
WIRE -560 336 -560 128
WIRE -128 336 -560 336
FLAG -576 128 S1
IOPIN -576 128 In
FLAG 32 128 S2
IOPIN 32 128 In
FLAG -240 -48 A
IOPIN -240 -48 In
FLAG -240 48 B
IOPIN -240 48 In
FLAG -240 208 C
IOPIN -240 208 In
FLAG -240 304 D
IOPIN -240 304 In
FLAG -80 -96 VDD
IOPIN -80 -96 In
FLAG -80 32 VDD
IOPIN -80 32 In
FLAG -80 160 VDD
IOPIN -80 160 In
FLAG -80 288 VDD
IOPIN -80 288 In
FLAG -416 160 VDD
IOPIN -416 160 In
FLAG 64 -32 VDD
IOPIN 64 -32 In
FLAG 112 96 VDD
IOPIN 112 96 In
FLAG 64 224 VDD
IOPIN 64 224 In
FLAG 288 32 VDD
IOPIN 288 32 In
FLAG 288 160 VDD
IOPIN 288 160 In
FLAG 432 96 VDD
IOPIN 432 96 In
FLAG 496 128 Y
IOPIN 496 128 Out
SYMBOL NOR -432 128 M180
SYMATTR InstName X11
SYMBOL NOR -96 -64 R0
SYMATTR InstName X13
SYMBOL NOR -96 64 R0
SYMATTR InstName X14
SYMBOL NOR -96 192 R0
SYMATTR InstName X19
SYMBOL NOR -96 320 R0
SYMATTR InstName X20
SYMBOL NOR 48 256 R0
SYMATTR InstName X1
SYMBOL NOR 48 0 R0
SYMATTR InstName X2
SYMBOL NOR 272 64 R0
SYMATTR InstName X3
SYMBOL NOR 272 192 R0
SYMATTR InstName X4
SYMBOL NOR 96 128 R0
SYMATTR InstName X5
SYMBOL NOR 416 128 R0
SYMATTR InstName X6
