Version 4
SHEET 1 880 4068
WIRE -304 3472 -416 3472
WIRE -144 3488 -192 3488
WIRE -48 3488 -144 3488
WIRE -416 3568 -416 3472
WIRE -304 3568 -304 3504
WIRE -48 3568 -48 3552
WIRE -48 3568 -144 3568
WIRE -48 3584 -48 3568
FLAG -304 3648 0
FLAG -608 3648 0
FLAG -48 3584 0
FLAG -608 3568 VDD
FLAG -256 3456 VDD
FLAG -416 3648 0
SYMBOL voltage -304 3552 R0
WINDOW 3 -48 -64 VRight 2
WINDOW 123 0 0 Left 0
WINDOW 39 0 0 Left 0
SYMATTR Value PULSE(0 1 0n 10p 10p 9n 18n)
SYMATTR InstName V1
SYMBOL voltage -608 3552 R0
WINDOW 123 0 0 Left 0
WINDOW 39 0 0 Left 0
SYMATTR InstName VDD
SYMATTR Value 1
SYMBOL res -160 3472 R0
SYMATTR InstName R1
SYMATTR Value 100k
SYMBOL cap -64 3488 R0
SYMATTR InstName C1
SYMATTR Value 100f
SYMBOL voltage -416 3552 R0
WINDOW 3 -48 -64 VRight 2
WINDOW 123 0 0 Left 0
WINDOW 39 0 0 Left 0
SYMATTR Value PULSE(0 1 9n 10p 10p 18n 36n)
SYMATTR InstName V2
SYMBOL NOR -272 3488 R0
SYMATTR InstName X1
TEXT -672 3384 Left 2 !.include 90nm_bulk.txt
TEXT -672 3416 Left 2 !.tran 0 36n 0 1p
